*NODE
1, 0.000000, 0.000000, 0.000000
2, 0.007917, 0.000000, 0.000000
3, 0.015833, 0.000000, 0.000000
4, 0.023750, 0.000000, 0.000000
5, 0.031667, 0.000000, 0.000000
6, 0.039583, 0.000000, 0.000000
7, 0.047500, 0.000000, 0.000000
8, 0.055417, 0.000000, 0.000000
9, 0.063333, 0.000000, 0.000000
10, 0.071250, 0.000000, 0.000000
11, 0.079167, 0.000000, 0.000000
12, 0.087083, 0.000000, 0.000000
13, 0.095000, 0.000000, 0.000000
14, 0.102917, 0.000000, 0.000000
15, 0.110833, 0.000000, 0.000000
16, 0.118750, 0.000000, 0.000000
17, 0.126667, 0.000000, 0.000000
18, 0.134583, 0.000000, 0.000000
19, 0.142500, 0.000000, 0.000000
20, 0.150417, 0.000000, 0.000000
** ... 1230 like lines cut
*ELEMENT, TYPE=C3D8, ELSET=Eall
1, 1, 2, 27, 26, 626, 627, 652, 651
2, 2, 3, 28, 27, 627, 628, 653, 652
3, 3, 4, 29, 28, 628, 629, 654, 653
4, 4, 5, 30, 29, 629, 630, 655, 654
5, 5, 6, 31, 30, 630, 631, 656, 655
6, 6, 7, 32, 31, 631, 632, 657, 656
7, 7, 8, 33, 32, 632, 633, 658, 657
8, 8, 9, 34, 33, 633, 634, 659, 658
9, 9, 10, 35, 34, 634, 635, 660, 659
10, 10, 11, 36, 35, 635, 636, 661, 660
11, 11, 12, 37, 36, 636, 637, 662, 661
12, 12, 13, 38, 37, 637, 638, 663, 662
13, 13, 14, 39, 38, 638, 639, 664, 663
14, 14, 15, 40, 39, 639, 640, 665, 664
15, 15, 16, 41, 40, 640, 641, 666, 665
16, 16, 17, 42, 41, 641, 642, 667, 666
17, 17, 18, 43, 42, 642, 643, 668, 667
18, 18, 19, 44, 43, 643, 644, 669, 668
19, 19, 20, 45, 44, 644, 645, 670, 669
20, 20, 21, 46, 45, 645, 646, 671, 670
** ... 556 like lines cut
*NSET, NSET=Nall, GENERATE
1, 1250, 1
*MATERIAL, NAME=AL
*CONDUCTIVITY
200.0
*SOLID SECTION, ELSET=Eall, MATERIAL=AL
*PHYSICAL CONSTANTS, ABSOLUTE ZERO=0., STEFAN BOLTZMANN=5.67E-8
*INITIAL CONDITIONS, TYPE=TEMPERATURE
Nall, 300.
*STEP, INC=200
*HEAT TRANSFER, STEADY STATE
*CFLUX
261, 11, 0.680000
262, 11, 0.680000
263, 11, 0.680000
264, 11, 0.680000
265, 11, 0.680000
286, 11, 0.680000
287, 11, 0.680000
288, 11, 0.680000
289, 11, 0.680000
290, 11, 0.680000
311, 11, 0.680000
312, 11, 0.680000
313, 11, 0.680000
314, 11, 0.680000
315, 11, 0.680000
336, 11, 0.680000
337, 11, 0.680000
338, 11, 0.680000
339, 11, 0.680000
340, 11, 0.680000
** ... 5 like lines cut
*RADIATE
1, R2, 2.7, 0.9
2, R2, 2.7, 0.9
3, R2, 2.7, 0.9
4, R2, 2.7, 0.9
5, R2, 2.7, 0.9
6, R2, 2.7, 0.9
7, R2, 2.7, 0.9
8, R2, 2.7, 0.9
9, R2, 2.7, 0.9
10, R2, 2.7, 0.9
11, R2, 2.7, 0.9
12, R2, 2.7, 0.9
13, R2, 2.7, 0.9
14, R2, 2.7, 0.9
15, R2, 2.7, 0.9
16, R2, 2.7, 0.9
17, R2, 2.7, 0.9
18, R2, 2.7, 0.9
19, R2, 2.7, 0.9
20, R2, 2.7, 0.9
** ... 556 like lines cut
*NODE PRINT, NSET=Nall
NT
*NODE FILE
NT
*END STEP
